Version 4
SHEET 1 1236 1668
WIRE 608 -128 304 -128
WIRE 304 -80 304 -128
WIRE 208 32 208 -80
WIRE 304 32 304 0
WIRE 304 32 208 32
WIRE 208 80 208 32
WIRE 208 80 -16 80
WIRE 272 80 208 80
WIRE 400 80 352 80
WIRE 448 80 400 80
WIRE 608 80 608 -128
WIRE 208 112 208 80
WIRE 400 112 400 80
WIRE -16 192 -16 80
WIRE -16 192 -80 192
WIRE 448 192 448 80
WIRE 480 192 448 192
WIRE 608 192 608 160
WIRE 608 192 544 192
WIRE -80 224 -80 192
WIRE -16 224 -16 192
WIRE 208 224 208 192
WIRE 208 224 80 224
WIRE 256 224 208 224
WIRE 336 224 256 224
WIRE 400 224 400 176
WIRE 400 224 336 224
WIRE 480 224 400 224
WIRE 608 224 544 224
WIRE 80 256 80 224
WIRE 608 272 608 224
WIRE -80 320 -80 288
WIRE -16 320 -16 288
WIRE -16 320 -80 320
WIRE 336 320 336 224
WIRE -16 384 -16 320
WIRE 80 384 80 336
WIRE 80 384 -16 384
WIRE 176 384 80 384
WIRE 256 400 256 224
WIRE 256 400 240 400
WIRE 176 416 160 416
WIRE 80 432 80 384
WIRE 80 544 80 512
WIRE 160 544 160 416
WIRE 160 544 80 544
WIRE 208 544 160 544
WIRE 336 544 336 384
WIRE 336 544 208 544
WIRE 0 608 -112 608
WIRE 208 608 208 544
WIRE 208 608 64 608
WIRE 384 608 208 608
WIRE 384 624 384 608
WIRE 208 672 208 608
WIRE -112 704 -112 688
WIRE -112 704 -176 704
WIRE -176 720 -176 704
WIRE -112 736 -112 704
WIRE 384 736 384 704
WIRE 0 816 -112 816
WIRE 208 816 208 752
WIRE 208 816 64 816
WIRE 384 816 384 800
WIRE 384 816 208 816
WIRE 208 912 208 816
WIRE 208 912 80 912
WIRE 256 912 208 912
WIRE 336 912 256 912
WIRE 80 944 80 912
WIRE 80 1072 80 1024
WIRE 80 1072 -16 1072
WIRE 176 1072 80 1072
WIRE 336 1072 336 912
WIRE 256 1088 256 912
WIRE 256 1088 240 1088
WIRE 176 1104 160 1104
WIRE 80 1120 80 1072
WIRE -16 1136 -16 1072
WIRE -16 1136 -80 1136
WIRE -80 1168 -80 1136
WIRE -16 1168 -16 1136
WIRE 80 1232 80 1200
WIRE 160 1232 160 1104
WIRE 160 1232 80 1232
WIRE 208 1232 160 1232
WIRE 336 1232 336 1136
WIRE 336 1232 208 1232
WIRE -80 1264 -80 1232
WIRE -16 1264 -16 1232
WIRE -16 1264 -80 1264
WIRE 208 1264 208 1232
WIRE -16 1376 -16 1264
WIRE 208 1376 208 1344
WIRE 208 1376 -16 1376
WIRE 208 1408 208 1376
WIRE 208 1520 208 1488
WIRE 208 1648 208 1600
FLAG 208 1648 0
FLAG 208 -80 0
FLAG 608 272 0
FLAG -176 720 0
SYMBOL res 64 928 R0
SYMATTR InstName R1
SYMATTR Value 6.8k
SYMBOL res 64 1104 R0
SYMATTR InstName R2
SYMATTR Value 6.8k
SYMBOL res 192 1248 R0
SYMATTR InstName R3
SYMATTR Value 200
SYMBOL cap -32 1168 R0
SYMATTR InstName C1
SYMATTR Value 3.3µ
SYMBOL voltage 208 1616 R180
WINDOW 0 24 96 Left 2
WINDOW 3 24 16 Left 2
WINDOW 123 0 0 Left 0
WINDOW 39 24 -12 Left 2
SYMATTR InstName V1
SYMATTR Value 48
SYMATTR SpiceLine Rser=.1
SYMBOL diode 352 1136 R180
WINDOW 0 -26 63 Left 2
WINDOW 3 -81 0 Left 2
SYMATTR InstName D1
SYMATTR Value 1N4148
SYMBOL res 64 528 M180
WINDOW 0 36 76 Left 2
WINDOW 3 36 40 Left 2
SYMATTR InstName R4
SYMATTR Value 6.8k
SYMBOL res 64 352 M180
WINDOW 0 36 76 Left 2
WINDOW 3 36 40 Left 2
SYMATTR InstName R5
SYMATTR Value 6.8k
SYMBOL res 192 208 M180
WINDOW 0 36 76 Left 2
WINDOW 3 36 40 Left 2
SYMATTR InstName R6
SYMATTR Value 200
SYMBOL cap -32 288 M180
WINDOW 0 24 56 Left 2
WINDOW 3 24 8 Left 2
SYMATTR InstName C2
SYMATTR Value 3.3µ
SYMBOL diode 320 384 M180
WINDOW 0 24 64 Left 2
WINDOW 3 24 0 Left 2
SYMATTR InstName D2
SYMATTR Value 1N4148
SYMBOL AutoGenerated\\PHPT61003PY 208 400 M0
WINDOW 3 -42 45 Top 2
SYMATTR InstName U1
SYMBOL AutoGenerated\\PHPT61003NY 208 1088 M0
WINDOW 3 -43 56 Top 2
SYMATTR InstName U2
SYMBOL AutoGenerated\\TCMD1000 512 208 R0
SYMATTR InstName U3
SYMBOL diode 416 176 R180
WINDOW 0 24 64 Left 2
WINDOW 3 24 0 Left 2
SYMATTR InstName D3
SYMATTR Value 1N4148
SYMBOL res 368 64 R90
WINDOW 0 0 56 VBottom 2
WINDOW 3 32 56 VTop 2
SYMATTR InstName R7
SYMATTR Value 4.7k
SYMBOL voltage 304 -96 R0
WINDOW 123 0 0 Left 0
WINDOW 39 0 0 Left 0
SYMATTR InstName V3
SYMATTR Value 3.3v
SYMBOL res 592 64 R0
SYMATTR InstName R8
SYMATTR Value 1k
SYMBOL res 368 608 R0
SYMATTR InstName R9
SYMATTR Value 6930
SYMBOL cap 368 736 R0
SYMATTR InstName C3
SYMATTR Value 8µ
SYMBOL voltage 208 1392 R0
WINDOW 123 0 0 Left 0
WINDOW 39 0 0 Left 0
SYMATTR InstName V4
SYMATTR Value SINE(0 127 20)
SYMBOL cap 64 592 R90
WINDOW 0 0 32 VBottom 2
WINDOW 3 32 32 VTop 2
SYMATTR InstName C4
SYMATTR Value 2.2µ
SYMBOL cap 64 800 R90
WINDOW 0 0 32 VBottom 2
WINDOW 3 32 32 VTop 2
SYMATTR InstName C5
SYMATTR Value 2.2µ
SYMBOL res -128 592 R0
SYMATTR InstName R10
SYMATTR Value 33k
SYMBOL res -128 720 R0
SYMATTR InstName R11
SYMATTR Value 33k
SYMBOL zener -64 288 R180
WINDOW 0 24 64 Left 2
WINDOW 3 24 0 Left 2
SYMATTR InstName D4
SYMATTR Value BZX84B9V1L
SYMATTR Description Diode
SYMATTR Type diode
SYMBOL zener -64 1232 R180
WINDOW 0 24 64 Left 2
WINDOW 3 24 0 Left 2
SYMATTR InstName D6
SYMATTR Value BZX84B9V1L
SYMATTR Description Diode
SYMATTR Type diode
SYMBOL res 192 656 R0
SYMATTR InstName R12
SYMATTR Value 100
TEXT 152 -216 Left 2 !.tran 0 1 10m
TEXT 152 -240 Left 2 !.model PhoneHook SW(Ron=10 Roff=10Meg Vt=4.5 Vh=-.4)
