Version 4
SHEET 1 1028 1380
WIRE 272 256 272 160
WIRE 272 416 272 336
WIRE 272 416 48 416
WIRE 272 448 272 416
WIRE 48 560 48 416
WIRE 272 560 272 528
WIRE 272 560 144 560
WIRE 320 560 272 560
WIRE 432 560 320 560
WIRE 144 592 144 560
WIRE 432 672 432 560
WIRE 48 720 48 624
WIRE 144 720 144 672
WIRE 144 720 48 720
WIRE 240 720 144 720
WIRE 320 736 320 560
WIRE 320 736 304 736
WIRE 240 752 224 752
WIRE 144 768 144 720
WIRE 144 880 144 848
WIRE 224 880 224 752
WIRE 224 880 144 880
WIRE 272 880 224 880
WIRE 432 880 432 736
WIRE 432 880 272 880
WIRE 272 928 272 880
WIRE 272 1040 272 1008
WIRE 272 1216 272 1120
FLAG 272 160 0
FLAG 272 1216 0
SYMBOL res 128 864 M180
WINDOW 0 36 76 Left 2
WINDOW 3 36 40 Left 2
SYMATTR InstName R1
SYMATTR Value 6.8k
SYMBOL res 128 688 M180
WINDOW 0 36 76 Left 2
WINDOW 3 36 40 Left 2
SYMATTR InstName R2
SYMATTR Value 6.8k
SYMBOL res 256 544 M180
WINDOW 0 36 76 Left 2
WINDOW 3 36 40 Left 2
SYMATTR InstName R3
SYMATTR Value 200
SYMBOL cap 32 624 M180
WINDOW 0 24 56 Left 2
WINDOW 3 24 8 Left 2
SYMATTR InstName C1
SYMATTR Value 3.9µ
SYMBOL voltage 272 352 M180
WINDOW 123 24 68 Left 2
WINDOW 39 24 124 Left 2
SYMATTR SpiceLine Rser=.1
SYMATTR InstName V1
SYMATTR Value 48
SYMBOL voltage 272 912 R0
WINDOW 123 24 124 Left 2
WINDOW 39 0 0 Left 0
SYMATTR Value2 AC 10
SYMATTR InstName V2
SYMATTR Value ""
SYMBOL res 256 1024 R0
SYMATTR InstName R4
SYMATTR Value 1
SYMBOL diode 448 736 R180
WINDOW 0 24 64 Left 2
WINDOW 3 24 0 Left 2
SYMATTR InstName D1
SYMATTR Value 1N4148
SYMBOL AutoGenerated\\PHPT61003PY 272 736 M0
SYMATTR InstName U1
TEXT 152 -184 Left 2 !.lib MPSA92.lib
TEXT 160 -224 Left 2 !.ac dec 25 1 300
