Version 4
SHEET 1 880 980
WIRE 304 -96 304 -144
WIRE 304 16 304 -16
WIRE 304 112 304 96
WIRE 304 112 176 112
WIRE 352 112 304 112
WIRE 432 112 352 112
WIRE 176 144 176 112
WIRE 176 272 176 224
WIRE 176 272 80 272
WIRE 272 272 176 272
WIRE 432 272 432 112
WIRE 352 288 352 112
WIRE 352 288 336 288
WIRE 272 304 256 304
WIRE 176 320 176 272
WIRE 80 368 80 272
WIRE 176 432 176 400
WIRE 256 432 256 304
WIRE 256 432 176 432
WIRE 304 432 256 432
WIRE 432 432 432 336
WIRE 432 432 304 432
WIRE 304 464 304 432
WIRE 80 576 80 432
WIRE 304 576 304 544
WIRE 304 576 80 576
WIRE 304 656 304 576
WIRE 304 784 304 736
FLAG 304 -144 0
FLAG 304 784 0
SYMBOL res 160 128 R0
SYMATTR InstName R1
SYMATTR Value 6.8k
SYMBOL res 160 304 R0
SYMATTR InstName R2
SYMATTR Value 6.8k
SYMBOL res 288 448 R0
SYMATTR InstName R3
SYMATTR Value 200
SYMBOL cap 64 368 R0
SYMATTR InstName C1
SYMATTR Value 3.9µ
SYMBOL res 288 -112 R0
SYMATTR InstName R4
SYMATTR Value 1
SYMBOL voltage 304 752 R180
WINDOW 0 24 96 Left 2
WINDOW 3 24 16 Left 2
WINDOW 123 0 0 Left 0
WINDOW 39 24 -12 Left 2
SYMATTR InstName V1
SYMATTR Value 48
SYMATTR SpiceLine Rser=.1
SYMBOL voltage 304 0 R0
WINDOW 123 24 124 Left 2
WINDOW 39 0 0 Left 0
SYMATTR Value2 AC 10
SYMATTR InstName V2
SYMATTR Value ""
SYMBOL diode 448 336 R180
WINDOW 0 24 64 Left 2
WINDOW 3 24 0 Left 2
SYMATTR InstName D1
SYMATTR Value 1N4148
SYMBOL AutoGenerated\\PHPT61003NY 304 288 M0
SYMATTR InstName U1
TEXT 152 -184 Left 2 !.lib PHPT61003NY.lib
TEXT 160 -224 Left 2 !.ac dec 25 1 300
