Version 4
SHEET 1 880 1604
WIRE 208 80 208 -80
WIRE 208 80 -16 80
WIRE 208 112 208 80
WIRE -16 224 -16 80
WIRE 208 224 208 192
WIRE 208 224 80 224
WIRE 256 224 208 224
WIRE 336 224 256 224
WIRE 80 256 80 224
WIRE 336 320 336 224
WIRE -16 384 -16 288
WIRE 80 384 80 336
WIRE 80 384 -16 384
WIRE 176 384 80 384
WIRE 256 400 256 224
WIRE 256 400 240 400
WIRE 176 416 160 416
WIRE 80 432 80 384
WIRE 80 544 80 512
WIRE 160 544 160 416
WIRE 160 544 80 544
WIRE 208 544 160 544
WIRE 336 544 336 384
WIRE 336 544 208 544
WIRE 208 688 208 544
WIRE 208 912 208 768
WIRE 208 912 80 912
WIRE 256 912 208 912
WIRE 336 912 256 912
WIRE 80 944 80 912
WIRE 80 1072 80 1024
WIRE 80 1072 -16 1072
WIRE 176 1072 80 1072
WIRE 336 1072 336 912
WIRE 256 1088 256 912
WIRE 256 1088 240 1088
WIRE 176 1104 160 1104
WIRE 80 1120 80 1072
WIRE -16 1168 -16 1072
WIRE 80 1232 80 1200
WIRE 160 1232 160 1104
WIRE 160 1232 80 1232
WIRE 208 1232 160 1232
WIRE 336 1232 336 1136
WIRE 336 1232 208 1232
WIRE 208 1264 208 1232
WIRE -16 1376 -16 1232
WIRE 208 1376 208 1344
WIRE 208 1376 -16 1376
WIRE 208 1456 208 1376
WIRE 208 1584 208 1536
FLAG 208 1584 0
FLAG 208 -80 0
SYMBOL res 64 928 R0
SYMATTR InstName R1
SYMATTR Value 6.8k
SYMBOL res 64 1104 R0
SYMATTR InstName R2
SYMATTR Value 6.8k
SYMBOL res 192 1248 R0
SYMATTR InstName R3
SYMATTR Value 200
SYMBOL cap -32 1168 R0
SYMATTR InstName C1
SYMATTR Value 3.9µ
SYMBOL voltage 208 1552 R180
WINDOW 0 24 96 Left 2
WINDOW 3 24 16 Left 2
WINDOW 123 0 0 Left 0
WINDOW 39 24 -12 Left 2
SYMATTR InstName V1
SYMATTR Value 48
SYMATTR SpiceLine Rser=.1
SYMBOL diode 352 1136 R180
WINDOW 0 -26 63 Left 2
WINDOW 3 -81 0 Left 2
SYMATTR InstName D1
SYMATTR Value 1N4148
SYMBOL res 64 528 M180
WINDOW 0 36 76 Left 2
WINDOW 3 36 40 Left 2
SYMATTR InstName R4
SYMATTR Value 6.8k
SYMBOL res 64 352 M180
WINDOW 0 36 76 Left 2
WINDOW 3 36 40 Left 2
SYMATTR InstName R5
SYMATTR Value 6.8k
SYMBOL res 192 208 M180
WINDOW 0 36 76 Left 2
WINDOW 3 36 40 Left 2
SYMATTR InstName R6
SYMATTR Value 200
SYMBOL cap -32 288 M180
WINDOW 0 24 56 Left 2
WINDOW 3 24 8 Left 2
SYMATTR InstName C2
SYMATTR Value 3.9µ
SYMBOL diode 320 384 M180
WINDOW 0 24 64 Left 2
WINDOW 3 24 0 Left 2
SYMATTR InstName D2
SYMATTR Value 1N4148
SYMBOL AutoGenerated\\PHPT61003PY 208 400 M0
SYMATTR InstName U1
SYMBOL AutoGenerated\\PHPT61003NY 208 1088 M0
SYMATTR InstName U2
SYMBOL voltage 208 672 R0
WINDOW 123 24 124 Left 2
WINDOW 39 24 152 Left 2
SYMATTR Value2 AC 48
SYMATTR InstName V2
SYMATTR Value ""
TEXT 152 -184 Left 2 !.lib PHPT61003NY.lib
TEXT 152 -216 Left 2 !.ac dec 25 1 300
TEXT 152 -152 Left 2 !.lib PHPT61003PY.lib
